Version 4
SHEET 1 1480 888
WIRE 720 -80 -64 -80
WIRE 944 -80 720 -80
WIRE 992 -32 64 -32
WIRE 1168 -32 992 -32
WIRE -160 32 -512 32
WIRE -64 32 -64 -80
WIRE -160 48 -160 32
WIRE -96 48 -160 48
WIRE 272 64 -32 64
WIRE 400 64 272 64
WIRE -96 80 -160 80
WIRE -160 96 -160 80
WIRE -160 96 -288 96
WIRE 272 96 272 64
WIRE 1168 96 1168 -32
WIRE 624 128 560 128
WIRE 896 128 704 128
WIRE -64 176 -64 96
WIRE -64 176 -80 176
WIRE 64 176 64 -32
WIRE 64 176 -64 176
WIRE -512 208 -512 112
WIRE -288 240 -288 96
WIRE 272 240 272 176
WIRE 272 240 -288 240
WIRE 272 304 272 240
WIRE 400 320 400 64
WIRE 416 320 400 320
WIRE 560 320 560 128
WIRE 560 320 496 320
WIRE 640 320 560 320
WIRE 720 320 720 -80
WIRE 1168 336 1168 176
WIRE 1168 336 1024 336
WIRE 896 352 896 128
WIRE 896 352 784 352
WIRE 560 384 496 384
WIRE 640 384 560 384
WIRE 992 384 992 -32
WIRE 992 384 720 384
WIRE 272 448 272 384
WIRE 272 448 -288 448
WIRE 560 512 560 384
WIRE 272 528 272 448
WIRE 1168 560 1168 336
WIRE -288 592 -288 448
WIRE -176 592 -288 592
WIRE -80 592 -80 176
WIRE -176 608 -176 592
WIRE -112 608 -176 608
WIRE 560 608 560 592
WIRE 1024 608 1024 336
WIRE 1024 608 560 608
WIRE 272 624 272 608
WIRE 272 624 -48 624
WIRE 416 624 416 384
WIRE 416 624 272 624
WIRE -112 640 -176 640
WIRE 560 640 560 608
WIRE -176 656 -176 640
WIRE -176 656 -368 656
WIRE -368 784 -368 736
WIRE -80 880 -80 656
WIRE 944 880 944 -80
WIRE 944 880 -80 880
WIRE 1168 880 1168 640
WIRE 1168 880 944 880
FLAG 560 640 0
FLAG -512 208 0
FLAG -368 784 0
SYMBOL res 720 112 R90
WINDOW 0 0 56 VBottom 2
WINDOW 3 32 56 VTop 2
SYMATTR InstName R1
SYMATTR Value 10k
SYMBOL res 512 304 R90
WINDOW 0 0 56 VBottom 2
WINDOW 3 32 56 VTop 2
SYMATTR InstName R2
SYMATTR Value 10k
SYMBOL res 512 368 R90
WINDOW 0 0 56 VBottom 2
WINDOW 3 32 56 VTop 2
SYMATTR InstName R3
SYMATTR Value 10k
SYMBOL res 576 608 R180
WINDOW 0 36 76 Left 2
WINDOW 3 36 40 Left 2
SYMATTR InstName R4
SYMATTR Value 10k
SYMBOL res 288 192 R180
WINDOW 0 36 76 Left 2
WINDOW 3 36 40 Left 2
SYMATTR InstName R5
SYMATTR Value 18k
SYMBOL res 288 400 R180
WINDOW 0 36 76 Left 2
WINDOW 3 36 40 Left 2
SYMATTR InstName R6
SYMATTR Value 2k
SYMBOL res 288 624 R180
WINDOW 0 36 76 Left 2
WINDOW 3 36 40 Left 2
SYMATTR InstName R7
SYMATTR Value 18k
SYMBOL voltage -368 640 R0
WINDOW 123 0 0 Left 0
WINDOW 39 0 0 Left 0
SYMATTR InstName V1
SYMATTR Value PWL file="LA test values.txt"
SYMBOL voltage -512 16 R0
WINDOW 123 0 0 Left 0
WINDOW 39 0 0 Left 0
SYMATTR InstName V2
SYMATTR Value PWL file="RA test values.txt"
SYMBOL voltage 1168 80 R0
WINDOW 123 0 0 Left 0
WINDOW 39 0 0 Left 0
SYMATTR InstName V3
SYMATTR Value 20v
SYMBOL voltage 1168 544 R0
WINDOW 123 0 0 Left 0
WINDOW 39 0 0 Left 0
SYMATTR InstName V4
SYMATTR Value 20v
SYMBOL OpAmps\\AD744 -64 128 M180
SYMATTR InstName U1
SYMBOL OpAmps\\AD744 -80 560 R0
SYMATTR InstName U3
SYMBOL AutoGenerated\\TL072 704 352 M180
SYMATTR InstName U2
TEXT -544 808 Left 2 !.tran 10
